McPAT (version 0.8 of Aug, 2010) is computing the target processor...
 

McPAT (version 0.8 of Aug, 2010) results  (current print level is 5)
*****************************************************************************************
  Technology 32 nm
  Using Long Channel Devices When Appropriate
  Interconnect metal projection= aggressive interconnect technology projection
  Core clock Rate(MHz) 2000

*****************************************************************************************
Processor: 
  Area = 286.88 mm^2
  Peak Power = 62.4825 W // what is peak power?
  Total Leakage = 13.8662 W // total leakage = subthreshold leakage + gate leakage
  Peak Dynamic = 48.6163 W // peak dynamic vs. runtime dynamic?
  Subthreshold Leakage = 10.7768 W
  Gate Leakage = 3.08932 W
  Runtime Dynamic = 0.447384 W

  Total Cores: 8 cores // results here are the sum of 8 cores
  Device Type= ITRS high performance device type
    Area = 158.251 mm^2
    Peak Dynamic = 40.5703 W
    Subthreshold Leakage = 7.04387 W
    Gate Leakage = 2.94111 W
    Runtime Dynamic = 0.437331 W

  Total L3s: 
  Device Type= ITRS high performance device type
    Area = 128.009 mm^2
    Peak Dynamic = 4.39168 W
    Subthreshold Leakage = 3.70911 W
    Gate Leakage = 0.133741 W
    Runtime Dynamic = 0.000137291 W

  Total NoCs (Network/Bus): 
  Device Type= ITRS high performance device type
    Area = 0.619934 mm^2
    Peak Dynamic = 3.65436 W
    Subthreshold Leakage = 0.0238468 W
    Gate Leakage = 0.0144707 W
    Runtime Dynamic = 0.00991561 W

*****************************************************************************************
Core: // results of each core
      Area = 19.7814 mm^2
      Peak Dynamic = 5.07128 W
      Subthreshold Leakage = 0.880484 W
      Gate Leakage = 0.367639 W
      Runtime Dynamic = 0.437331 W

      Instruction Fetch Unit:
        Area = 2.302 mm^2
        Peak Dynamic = 0.828945 W
        Subthreshold Leakage = 0.0987967 W
        Gate Leakage = 0.0363165 W
        Runtime Dynamic = 0.00013272 W

          Instruction Cache:
            Area = 0.915175 mm^2
            Peak Dynamic = 0.155664 W
            Subthreshold Leakage = 0.00893549 W
            Gate Leakage = 0.0022411 W
            Runtime Dynamic = 1.74289e-05 W

          Branch Target Buffer:
            Area = 0.231488 mm^2
            Peak Dynamic = 0.0257394 W
            Subthreshold Leakage = 0.00627597 W
            Gate Leakage = 0.0022289 W
            Runtime Dynamic = 3.16692e-06 W

          Branch Predictor:
            Area = 0.137374 mm^2
            Peak Dynamic = 0.0298535 W
            Subthreshold Leakage = 0.00579106 W
            Gate Leakage = 0.00137172 W
            Runtime Dynamic = 7.75037e-06 W

              Global Predictor:
                Area = 0.0423471 mm^2
                Peak Dynamic = 0.0103677 W
                Subthreshold Leakage = 0.00227979 W
                Gate Leakage = 0.000524942 W
                Runtime Dynamic = 2.98085e-06 W

              Local Predictor:
              L1_Local Predictor:
                Area = 0.0178497 mm^2
                Peak Dynamic = 0.00606555 W
                Subthreshold Leakage = 0.000926434 W
                Gate Leakage = 0.000240734 W
                Runtime Dynamic = 1.78858e-06 W

              L2_Local Predictor:
                Area = 0.0122979 mm^2
                Peak Dynamic = 0.00399736 W
                Subthreshold Leakage = 0.000625109 W
                Gate Leakage = 0.000166744 W
                Runtime Dynamic = 1.17856e-06 W

              Chooser:
                Area = 0.0423471 mm^2
                Peak Dynamic = 0.0103677 W
                Subthreshold Leakage = 0.00227979 W
                Gate Leakage = 0.000524942 W
                Runtime Dynamic = 2.98085e-06 W

              RAS:
                Area = 0.0225318 mm^2
                Peak Dynamic = 0.00305251 W
                Subthreshold Leakage = 0.000305046 W
                Gate Leakage = 8.11054e-05 W
                Runtime Dynamic = 9.06303e-11 W

          Instruction Buffer:
            Area = 0.0166521 mm^2
            Peak Dynamic = 0.0993585 W
            Subthreshold Leakage = 0.000348481 W
            Gate Leakage = 8.24521e-05 W
            Runtime Dynamic = 1.79731e-05 W

          Instruction Decoder:
            Area = 0.939544 mm^2
            Peak Dynamic = 0.318426 W
            Subthreshold Leakage = 0.0690126 W
            Gate Leakage = 0.0216502 W
            Runtime Dynamic = 8.64006e-05 W

      Renaming Unit:
        Area = 0.498444 mm^2
        Peak Dynamic = 0.480256 W
        Subthreshold Leakage = 0.011567 W
        Gate Leakage = 0.00952873 W
        Runtime Dynamic = 6.83421e-05 W

          Int Front End RAT:
            Area = 0.213154 mm^2
            Peak Dynamic = 0.158064 W
            Subthreshold Leakage = 0.000970133 W
            Gate Leakage = 0.000238438 W
            Runtime Dynamic = 4.28884e-05 W

          FP Front End RAT:
            Area = 0.098642 mm^2
            Peak Dynamic = 0.0774866 W
            Subthreshold Leakage = 0.00121465 W
            Gate Leakage = 0.000305334 W
            Runtime Dynamic = 1.05125e-05 W

          Free List:
            Area = 0.0722483 mm^2
            Peak Dynamic = 0.0193239 W
            Subthreshold Leakage = 0.000455953 W
            Gate Leakage = 0.000110002 W
            Runtime Dynamic = 1.04866e-05 W

          Int Retire RAT: 
            Area = 0.0128799 mm^2
            Peak Dynamic = 0.00735147 W
            Subthreshold Leakage = 9.40489e-05 W
            Gate Leakage = 3.47002e-05 W
            Runtime Dynamic = 1.99472e-06 W

          FP Retire RAT:
            Area = 0.003885 mm^2
            Peak Dynamic = 0.00250733 W
            Subthreshold Leakage = 5.37245e-05 W
            Gate Leakage = 1.54995e-05 W
            Runtime Dynamic = 3.40165e-07 W

          FP Free List:
            Area = 0.035871 mm^2
            Peak Dynamic = 0.0156202 W
            Subthreshold Leakage = 0.000345452 W
            Gate Leakage = 8.26007e-05 W
            Runtime Dynamic = 2.11916e-06 W

      Load Store Unit:
        Area = 4.87317 mm^2
        Peak Dynamic = 0.647853 W
        Subthreshold Leakage = 0.0289976 W
        Gate Leakage = 0.0150477 W
        Runtime Dynamic = 0.0284944 W

          Data Cache:
            Area = 3.6396 mm^2
            Peak Dynamic = 0.344554 W
            Subthreshold Leakage = 0.0137383 W
            Gate Leakage = 0.00388553 W
            Runtime Dynamic = 0.0284489 W

          LoadQ:
            Area = 0.154492 mm^2
            Peak Dynamic = 0.0715285 W
            Subthreshold Leakage = 0.00236975 W
            Gate Leakage = 0.000850674 W
            Runtime Dynamic = 9.70415e-06 W

          StoreQ:
            Area = 0.196325 mm^2
            Peak Dynamic = 0.131819 W
            Subthreshold Leakage = 0.00445647 W
            Gate Leakage = 0.00156931 W
            Runtime Dynamic = 3.57673e-05 W

      Memory Management Unit:
        Area = 0.184587 mm^2
        Peak Dynamic = 0.219904 W
        Subthreshold Leakage = 0.0118988 W
        Gate Leakage = 0.0099978 W
        Runtime Dynamic = 0.0623432 W

          Itlb:
            Area = 0.030801 mm^2
            Peak Dynamic = 0.0309749 W
            Subthreshold Leakage = 0.00134158 W
            Gate Leakage = 0.000487109 W
            Runtime Dynamic = 0.0466099 W

          Dtlb:
            Area = 0.0920226 mm^2
            Peak Dynamic = 0.0390018 W
            Subthreshold Leakage = 0.00212419 W
            Gate Leakage = 0.00076854 W
            Runtime Dynamic = 0.0157333 W

      Execution Unit:
        Area = 6.01476 mm^2
        Peak Dynamic = 2.56725 W
        Subthreshold Leakage = 0.241072 W
        Gate Leakage = 0.103149 W
        Runtime Dynamic = 0.334552 W

          Register Files:
            Area = 2.73005 mm^2
            Peak Dynamic = 0.454187 W
            Subthreshold Leakage = 0.00928877 W
            Gate Leakage = 0.00253688 W
            Runtime Dynamic = 6.35529e-05 W

              Integer RF:
                Area = 1.83339 mm^2
                Peak Dynamic = 0.38872 W
                Subthreshold Leakage = 0.00554373 W
                Gate Leakage = 0.00153677 W
                Runtime Dynamic = 5.65039e-05 W

              Floating Point RF:
                Area = 0.896655 mm^2
                Peak Dynamic = 0.0654674 W
                Subthreshold Leakage = 0.00374504 W
                Gate Leakage = 0.00100011 W
                Runtime Dynamic = 7.04908e-06 W

          Instruction Scheduler:
            Area = 0.350706 mm^2
            Peak Dynamic = 0.316377 W
            Subthreshold Leakage = 0.00291598 W
            Gate Leakage = 0.00106671 W
            Runtime Dynamic = 0.000100342 W

              Instruction Window:
                Area = 0.0695409 mm^2
                Peak Dynamic = 0.121172 W
                Subthreshold Leakage = 0.00105976 W
                Gate Leakage = 0.000454888 W
                Runtime Dynamic = 4.27659e-05 W

              FP Instruction Window:
                Area = 0.0312623 mm^2
                Peak Dynamic = 0.0606861 W
                Subthreshold Leakage = 0.000648577 W
                Gate Leakage = 0.000281996 W
                Runtime Dynamic = 2.10766e-05 W

              ROB:
                Area = 0.249903 mm^2
                Peak Dynamic = 0.134519 W
                Subthreshold Leakage = 0.00120764 W
                Gate Leakage = 0.000329822 W
                Runtime Dynamic = 3.64999e-05 W

          Integer ALUs (Count: 6 ):
            Area = 0.329609 mm^2
            Peak Dynamic = 0.708872 W
            Subthreshold Leakage = 0.0626678 W
            Gate Leakage = 0.0258148 W
            Runtime Dynamic = 0.0557131 W

          Floating Point Units (FPUs) (Count: 2 ):
            Area = 2.35571 mm^2
            Peak Dynamic = 0.246036 W
            Subthreshold Leakage = 0.111971 W
            Gate Leakage = 0.0461243 W
            Runtime Dynamic = 0.166962 W

          Complex ALUs (Mul/Div) (Count: 1 ):
            Area = 0.164805 mm^2
            Peak Dynamic = 0.0986995 W
            Subthreshold Leakage = 0.0313339 W
            Gate Leakage = 0.0129074 W
            Runtime Dynamic = 0.111367 W

          Results Broadcast Bus:
            Area Overhead = 0.0221245 mm^2
            Peak Dynamic = 0.543179 W
            Subthreshold Leakage = 0.014461 W
            Gate Leakage = 0.00595693 W
            Runtime Dynamic = 0.000346308 W

    L2
    Area = 1.46302 mm^2
    Peak Dynamic = 0.32707 W
    Subthreshold Leakage = 0.0655504 W
    Gate Leakage = 0.0195167 W
    Runtime Dynamic = 0.0117405 W

*****************************************************************************************
      L3
      Area = 128.009 mm^2
      Peak Dynamic = 4.39168 W
      Subthreshold Leakage = 3.70911 W
      Gate Leakage = 0.133741 W
      Runtime Dynamic = 0.000137291 W

*****************************************************************************************
BUSES
      Area = 0.619934 mm^2
      Peak Dynamic = 3.65436 W
      Subthreshold Leakage = 0.0238468 W
      Gate Leakage = 0.0144707 W
      Runtime Dynamic = 0.00991561 W

      Bus: 
        Area = 0.619934 mm^2
        Peak Dynamic = 3.65436 W
        Subthreshold Leakage = 0.0238468 W
        Gate Leakage = 0.0144707 W
        Runtime Dynamic = 0.00991561 W

*****************************************************************************************
